17
 energy: 771.920118244590 gnorm: 1438.325993360217 xtb: 6.7.1 (unknown)
Ge           0.00000000000000        0.00000000000000        0.00000000000000
C            1.12583302000000        1.12583302000000        1.12583302000000
H            1.58636268000000        0.16950725000000        0.87793496000000
H            0.16950725000000        1.58636268000000        0.87793496000000
I            0.58242485000000        0.58242485000000       -0.87141886000000
C            1.12583302000000       -1.12583302000000       -1.12583302000000
H            0.16950725000000       -1.58636268000000       -0.87793496000000
H            1.58636268000000       -0.16950725000000       -0.87793496000000
I           -0.38680429000000        0.38680429000000       -1.06703942000000
C           -1.12583302000000        1.12583302000000       -1.12583302000000
H           -0.16950725000000        1.58636268000000       -0.87793496000000
H           -1.58636268000000        0.16950725000000       -0.87793496000000
I            0.38680429000000       -0.38680429000000       -1.06703942000000
C           -1.12583302000000       -1.12583302000000        1.12583302000000
H           -1.58636268000000       -0.16950725000000        0.87793496000000
H           -0.16950725000000       -1.58636268000000        0.87793496000000
I           -0.58242485000000       -0.58242485000000       -0.87141886000000
